<?xml version='1.0' encoding='utf-8'?>
<!DOCTYPE network SYSTEM "http://www.matsim.org/files/dtd/network_v2.dtd">
<network>
  <nodes>
    <node id="0" x="475365.932" y="4203053.234" z="0.0"/>
    <node id="1" x="474972.776" y="4203070.751" z="0.0"/>
    <node id="2" x="474672.152" y="4202909.612" z="0.0"/>
    <node id="3" x="475212.822" y="4202852.114" z="0.0"/>
    <node id="4" x="475467.627" y="4202260.759" z="0.0"/>
    <node id="5" x="476285.729" y="4202193.286" z="0.0"/>
    <node id="6" x="476294.812" y="4202262.705" z="0.0"/>
    <node id="7" x="476396.588" y="4202325.393" z="0.0"/>
    <node id="8" x="476142.269" y="4202348.748" z="0.0"/>
    <node id="9" x="475892.086" y="4202657.807" z="0.0"/>
    <node id="10" x="475908.306" y="4202718.792" z="0.0"/>
    <node id="11" x="475880.084" y="4202733.389" z="0.0"/>
    <node id="12" x="475915.767" y="4202913.423" z="0.0"/>
    <node id="13" x="475923.876" y="4202955.594" z="0.0"/>
    <node id="14" x="475956.315" y="4203105.136" z="0.0"/>
    <node id="15" x="476463.655" y="4203064.263" z="0.0"/>
    <node id="16" x="476563.647" y="4203128.573" z="0.0"/>
    <node id="17" x="476660.233" y="4203191.422" z="0.0"/>
    <node id="18" x="476749.844" y="4203055.18" z="0.0"/>
    <node id="19" x="476650.582" y="4202917.722" z="0.0"/>
    <node id="20" x="476735.409" y="4202905.638" z="0.0"/>
    <node id="21" x="476623.253" y="4202773.613" z="0.0"/>
    <node id="22" x="477064.499" y="4202851.547" z="0.0"/>
    <node id="23" x="476983.402" y="4202254.677" z="0.0"/>
    <node id="24" x="477005.136" y="4202218.994" z="0.0"/>
    <node id="25" x="477034.98" y="4202163.2" z="0.0"/>
    <node id="26" x="477136.188" y="4202313.715" z="0.0"/>
    <node id="27" x="476853.323" y="4202117.786" z="0.0"/>
    <node id="28" x="477368.448" y="4202020.47" z="0.0"/>
    <node id="29" x="476889.655" y="4201711.654" z="0.0"/>
    <node id="30" x="477156.949" y="4201421.004" z="0.0"/>
    <node id="31" x="476284.594" y="4202058.666" z="0.0"/>
    <node id="32" x="475486.685" y="4201278.923" z="0.0"/>
    <node id="33" x="476189.954" y="4200913.665" z="0.0"/>
    <node id="34" x="476771.254" y="4201152.413" z="0.0"/>
    <node id="35" x="475691.697" y="4200633.395" z="0.0"/>
    <node id="36" x="474793.796" y="4201432.034" z="0.0"/>
    <node id="37" x="474443.459" y="4201338.61" z="0.0"/>
    <node id="38" x="473675.962" y="4200679.782" z="0.0"/>
    <node id="39" x="473244.529" y="4200320.038" z="0.0"/>
    <node id="40" x="472979.83" y="4200192.879" z="0.0"/>
    <node id="41" x="472374.525" y="4199611.579" z="0.0"/>
    <node id="42" x="472123.775" y="4199757.877" z="0.0"/>
    <node id="43" x="472497.468" y="4200389.132" z="0.0"/>
    <node id="44" x="472837.424" y="4200744.659" z="0.0"/>
    <node id="45" x="473148.835" y="4200967.837" z="0.0"/>
    <node id="46" x="473320.111" y="4201082.021" z="0.0"/>
    <node id="47" x="473347.359" y="4201055.421" z="0.0"/>
    <node id="48" x="473110.395" y="4199145.923" z="0.0"/>
    <node id="49" x="472728.917" y="4198794.288" z="0.0"/>
    <node id="50" x="473048.113" y="4198877.331" z="0.0"/>
    <node id="51" x="473468.193" y="4199274.704" z="0.0"/>
    <node id="52" x="473439.322" y="4199310.062" z="0.0"/>
    <node id="53" x="473818.043" y="4199613.201" z="0.0"/>
    <node id="54" x="473801.175" y="4199629.42" z="0.0"/>
    <node id="55" x="473784.307" y="4199643.044" z="0.0"/>
    <node id="56" x="474245.584" y="4200032.632" z="0.0"/>
    <node id="57" x="474312.408" y="4199965.809" z="0.0"/>
    <node id="58" x="474228.716" y="4200051.447" z="0.0"/>
    <node id="59" x="474213.794" y="4200067.017" z="0.0"/>
    <node id="60" x="473881.785" y="4199548.81" z="0.0"/>
    <node id="61" x="475221.986" y="4200990.22" z="0.0"/>
    <node id="62" x="475201.712" y="4201003.52" z="0.0"/>
    <node id="63" x="475187.277" y="4201016.495" z="0.0"/>
    <node id="64" x="475392.613" y="4200961.025" z="0.0"/>
    <node id="65" x="475221.337" y="4200861.114" z="0.0"/>
    <node id="66" x="475286.214" y="4201081.697" z="0.0"/>
    <node id="67" x="473835.236" y="4201366.832" z="0.0"/>
    <node id="68" x="474092.149" y="4201715.871" z="0.0"/>
    <node id="69" x="474197.25" y="4201858.601" z="0.0"/>
    <node id="70" x="473161.324" y="4199040.497" z="0.0"/>
    <node id="71" x="476435.92" y="4201918.288" z="0.0"/>
    <node id="72" x="472203.331" y="4199308.602" z="0.0"/>
    <node id="73" x="472682.124" y="4198990.055" z="0.0"/>
    <node id="74" x="476524.477" y="4202924.534" z="0.0"/>
    <node id="75" x="476478.414" y="4202452.876" z="0.0"/>
    <node id="76" x="476492.687" y="4202794.13" z="0.0"/>
    <node id="77" x="475204.794" y="4203366.591" z="0.0"/>
    <node id="78" x="473459.597" y="4202111.217" z="0.0"/>
    <node id="79" x="473776.197" y="4201849.113" z="0.0"/>
    <node id="80" x="474216.065" y="4201513.049" z="0.0"/>
    <node id="81" x="474411.994" y="4201519.537" z="0.0"/>
    <node id="82" x="475463.433" y="4203219.364" z="0.0"/>
    <node id="83" x="474972.375" y="4203245.63" z="0.0"/>
    <node id="84" x="475325.251" y="4203438.627" z="0.0"/>
    <node id="85" x="475244.17" y="4203581.377" z="0.0"/>
    <node id="86" x="474821.774" y="4203347.981" z="0.0"/>
    <node id="87" x="474804.644" y="4203305.156" z="0.0"/>
    <node id="88" x="475172.367" y="4200936.658" z="0.0"/>
    <node id="89" x="476127.646" y="4202176.865" z="0.0"/>
    <node id="90" x="476063.694" y="4201975.874" z="0.0"/>
    <node id="91" x="476164.19" y="4201938.188" z="0.0"/>
    <node id="92" x="475107.273" y="4201305.523" z="0.0"/>
    <node id="93" x="475170.083" y="4201266.695" z="0.0"/>
    <node id="94" x="475187.784" y="4201364.907" z="0.0"/>
    <node id="95" x="475235.747" y="4201321.511" z="0.0"/>
    <node id="96" x="475134.538" y="4201192.822" z="0.0"/>
    <node id="97" x="475070.872" y="4201129.727" z="0.0"/>
    <node id="98" x="476056.064" y="4202592.93" z="0.0"/>
    <node id="99" x="473279.238" y="4201218.506" z="0.0"/>
  </nodes>
  <links capperiod="01:00:00">
    <link id="10000" from="24" to="26" length="161.763" capacity="3600.0" freespeed="13.889" permlanes="3" oneway="1" modes="car" origid="">
      <attributes>
        <attribute name="carpsafe" class="java.lang.Integer">2</attribute>
        <attribute name="ebikepsafe" class="java.lang.Integer">3</attribute>
        <attribute name="escootpsafe" class="java.lang.Integer">3</attribute>
        <attribute name="walkpsafe" class="java.lang.Integer">2</attribute>
        <attribute name="type" class="java.lang.String">primary</attribute>
        <attribute name="bicycleInfrastructureSpeedFactor" class="java.lang.Double">1.0</attribute>
      </attributes>
    </link>
    <link id="10001" from="24" to="27" length="182.528" capacity="3600.0" freespeed="13.889" permlanes="3" oneway="1" modes="car" origid="">
      <attributes>
        <attribute name="carpsafe" class="java.lang.Integer">2</attribute>
        <attribute name="ebikepsafe" class="java.lang.Integer">3</attribute>
        <attribute name="escootpsafe" class="java.lang.Integer">3</attribute>
        <attribute name="walkpsafe" class="java.lang.Integer">2</attribute>
        <attribute name="type" class="java.lang.String">primary</attribute>
        <attribute name="bicycleInfrastructureSpeedFactor" class="java.lang.Double">1.0</attribute>
      </attributes>
    </link>
    <link id="10002" from="24" to="25" length="63.299" capacity="1200.0" freespeed="13.889" permlanes="1" oneway="1" modes="bicycle,car" origid="">
      <attributes>
        <attribute name="carpsafe" class="java.lang.Integer">3</attribute>
        <attribute name="ebikepsafe" class="java.lang.Integer">3</attribute>
        <attribute name="escootpsafe" class="java.lang.Integer">2</attribute>
        <attribute name="walkpsafe" class="java.lang.Integer">3</attribute>
        <attribute name="type" class="java.lang.String">primary</attribute>
        <attribute name="bicycleInfrastructureSpeedFactor" class="java.lang.Double">1.0</attribute>
      </attributes>
    </link>
    <link id="10003" from="27" to="7" length="503.804" capacity="1200.0" freespeed="13.889" permlanes="1" oneway="1" modes="bicycle" origid="">
      <attributes>
        <attribute name="carpsafe" class="java.lang.Integer">3</attribute>
        <attribute name="ebikepsafe" class="java.lang.Integer">6</attribute>
        <attribute name="escootpsafe" class="java.lang.Integer">6</attribute>
        <attribute name="walkpsafe" class="java.lang.Integer">3</attribute>
        <attribute name="type" class="java.lang.String">primary</attribute>
        <attribute name="bicycleInfrastructureSpeedFactor" class="java.lang.Double">1.0</attribute>
      </attributes>
    </link>
    <link id="10004" from="26" to="28" length="374.23" capacity="1200.0" freespeed="13.889" permlanes="1" oneway="1" modes="bicycle,car" origid="">
      <attributes>
        <attribute name="carpsafe" class="java.lang.Integer">2</attribute>
        <attribute name="ebikepsafe" class="java.lang.Integer">2</attribute>
        <attribute name="escootpsafe" class="java.lang.Integer">2</attribute>
        <attribute name="walkpsafe" class="java.lang.Integer">2</attribute>
        <attribute name="type" class="java.lang.String">primary</attribute>
        <attribute name="bicycleInfrastructureSpeedFactor" class="java.lang.Double">1.0</attribute>
      </attributes>
    </link>
    <link id="10005" from="28" to="29" length="569.97" capacity="1200.0" freespeed="13.889" permlanes="1" oneway="1" modes="bicycle,car" origid="">
      <attributes>
        <attribute name="carpsafe" class="java.lang.Integer">3</attribute>
        <attribute name="ebikepsafe" class="java.lang.Integer">2</attribute>
        <attribute name="escootpsafe" class="java.lang.Integer">2</attribute>
        <attribute name="walkpsafe" class="java.lang.Integer">3</attribute>
        <attribute name="type" class="java.lang.String">primary</attribute>
        <attribute name="bicycleInfrastructureSpeedFactor" class="java.lang.Double">1.0</attribute>
      </attributes>
    </link>
    <link id="10006" from="29" to="30" length="409.695" capacity="1200.0" freespeed="13.889" permlanes="1" oneway="1" modes="bicycle,car" origid="">
      <attributes>
        <attribute name="carpsafe" class="java.lang.Integer">2</attribute>
        <attribute name="ebikepsafe" class="java.lang.Integer">2</attribute>
        <attribute name="escootpsafe" class="java.lang.Integer">2</attribute>
        <attribute name="walkpsafe" class="java.lang.Integer">2</attribute>
        <attribute name="type" class="java.lang.String">primary</attribute>
        <attribute name="bicycleInfrastructureSpeedFactor" class="java.lang.Double">1.0</attribute>
      </attributes>
    </link>
    <link id="10007" from="7" to="6" length="120.322" capacity="3600.0" freespeed="13.889" permlanes="3" oneway="1" modes="car" origid="">
      <attributes>
        <attribute name="carpsafe" class="java.lang.Integer">3</attribute>
        <attribute name="ebikepsafe" class="java.lang.Integer">3</attribute>
        <attribute name="escootpsafe" class="java.lang.Integer">3</attribute>
        <attribute name="walkpsafe" class="java.lang.Integer">3</attribute>
        <attribute name="type" class="java.lang.String">primary</attribute>
        <attribute name="bicycleInfrastructureSpeedFactor" class="java.lang.Double">1.0</attribute>
      </attributes>
    </link>
    <link id="10008" from="6" to="8" length="175.205" capacity="1200.0" freespeed="13.889" permlanes="1" oneway="1" modes="bicycle" origid="">
      <attributes>
        <attribute name="carpsafe" class="java.lang.Integer">1</attribute>
        <attribute name="ebikepsafe" class="java.lang.Integer">3</attribute>
        <attribute name="escootpsafe" class="java.lang.Integer">3</attribute>
        <attribute name="walkpsafe" class="java.lang.Integer">1</attribute>
        <attribute name="type" class="java.lang.String">primary</attribute>
        <attribute name="bicycleInfrastructureSpeedFactor" class="java.lang.Double">1.0</attribute>
      </attributes>
    </link>
    <link id="10009" from="6" to="5" length="70.038" capacity="3600.0" freespeed="13.889" permlanes="3" oneway="1" modes="car" origid="">
      <attributes>
        <attribute name="carpsafe" class="java.lang.Integer">3</attribute>
        <attribute name="ebikepsafe" class="java.lang.Integer">3</attribute>
        <attribute name="escootpsafe" class="java.lang.Integer">2</attribute>
        <attribute name="walkpsafe" class="java.lang.Integer">3</attribute>
        <attribute name="type" class="java.lang.String">primary</attribute>
        <attribute name="bicycleInfrastructureSpeedFactor" class="java.lang.Double">1.0</attribute>
      </attributes>
    </link>
    <link id="10010" from="89" to="4" length="670.448" capacity="1200.0" freespeed="13.889" permlanes="1" oneway="1" modes="bicycle" origid="">
      <attributes>
        <attribute name="carpsafe" class="java.lang.Integer">2</attribute>
        <attribute name="ebikepsafe" class="java.lang.Integer">3</attribute>
        <attribute name="escootpsafe" class="java.lang.Integer">3</attribute>
        <attribute name="walkpsafe" class="java.lang.Integer">2</attribute>
        <attribute name="type" class="java.lang.String">primary</attribute>
        <attribute name="bicycleInfrastructureSpeedFactor" class="java.lang.Double">1.0</attribute>
      </attributes>
    </link>
    <link id="10011" from="8" to="98" length="271.583" capacity="1200.0" freespeed="13.889" permlanes="1" oneway="1" modes="bicycle" origid="">
      <attributes>
        <attribute name="carpsafe" class="java.lang.Integer">2</attribute>
        <attribute name="ebikepsafe" class="java.lang.Integer">4</attribute>
        <attribute name="escootpsafe" class="java.lang.Integer">4</attribute>
        <attribute name="walkpsafe" class="java.lang.Integer">2</attribute>
        <attribute name="type" class="java.lang.String">primary</attribute>
        <attribute name="bicycleInfrastructureSpeedFactor" class="java.lang.Double">1.0</attribute>
      </attributes>
    </link>
    <link id="10012" from="98" to="9" length="176.549" capacity="1200.0" freespeed="13.889" permlanes="1" oneway="1" modes="bicycle" origid="">
      <attributes>
        <attribute name="carpsafe" class="java.lang.Integer">2</attribute>
        <attribute name="ebikepsafe" class="java.lang.Integer">4</attribute>
        <attribute name="escootpsafe" class="java.lang.Integer">4</attribute>
        <attribute name="walkpsafe" class="java.lang.Integer">2</attribute>
        <attribute name="type" class="java.lang.String">primary</attribute>
        <attribute name="bicycleInfrastructureSpeedFactor" class="java.lang.Double">1.0</attribute>
      </attributes>
    </link>
    <link id="10013" from="9" to="10" length="63.365" capacity="1200.0" freespeed="13.889" permlanes="1" oneway="1" modes="bicycle" origid="">
      <attributes>
        <attribute name="carpsafe" class="java.lang.Integer">1</attribute>
        <attribute name="ebikepsafe" class="java.lang.Integer">3</attribute>
        <attribute name="escootpsafe" class="java.lang.Integer">3</attribute>
        <attribute name="walkpsafe" class="java.lang.Integer">1</attribute>
        <attribute name="type" class="java.lang.String">primary</attribute>
        <attribute name="bicycleInfrastructureSpeedFactor" class="java.lang.Double">1.0</attribute>
      </attributes>
    </link>
    <link id="10014" from="10" to="11" length="32.064" capacity="1200.0" freespeed="13.889" permlanes="1" oneway="1" modes="bicycle" origid="">
      <attributes>
        <attribute name="carpsafe" class="java.lang.Integer">1</attribute>
        <attribute name="ebikepsafe" class="java.lang.Integer">3</attribute>
        <attribute name="escootpsafe" class="java.lang.Integer">3</attribute>
        <attribute name="walkpsafe" class="java.lang.Integer">1</attribute>
        <attribute name="type" class="java.lang.String">primary</attribute>
        <attribute name="bicycleInfrastructureSpeedFactor" class="java.lang.Double">1.0</attribute>
      </attributes>
    </link>
    <link id="10015" from="11" to="12" length="183.608" capacity="1200.0" freespeed="13.889" permlanes="1" oneway="1" modes="bicycle" origid="">
      <attributes>
        <attribute name="carpsafe" class="java.lang.Integer">2</attribute>
        <attribute name="ebikepsafe" class="java.lang.Integer">2</attribute>
        <attribute name="escootpsafe" class="java.lang.Integer">2</attribute>
        <attribute name="walkpsafe" class="java.lang.Integer">2</attribute>
        <attribute name="type" class="java.lang.String">primary</attribute>
        <attribute name="bicycleInfrastructureSpeedFactor" class="java.lang.Double">1.0</attribute>
      </attributes>
    </link>
    <link id="10016" from="4" to="3" length="673.721" capacity="1200.0" freespeed="13.889" permlanes="1" oneway="1" modes="bicycle" origid="">
      <attributes>
        <attribute name="carpsafe" class="java.lang.Integer">2</attribute>
        <attribute name="ebikepsafe" class="java.lang.Integer">3</attribute>
        <attribute name="escootpsafe" class="java.lang.Integer">3</attribute>
        <attribute name="walkpsafe" class="java.lang.Integer">2</attribute>
        <attribute name="type" class="java.lang.String">primary</attribute>
        <attribute name="bicycleInfrastructureSpeedFactor" class="java.lang.Double">1.0</attribute>
      </attributes>
    </link>
    <link id="10017" from="3" to="1" length="270.9" capacity="1200.0" freespeed="13.889" permlanes="1" oneway="1" modes="bicycle" origid="">
      <attributes>
        <attribute name="carpsafe" class="java.lang.Integer">2</attribute>
        <attribute name="ebikepsafe" class="java.lang.Integer">3</attribute>
        <attribute name="escootpsafe" class="java.lang.Integer">3</attribute>
        <attribute name="walkpsafe" class="java.lang.Integer">2</attribute>
        <attribute name="type" class="java.lang.String">primary</attribute>
        <attribute name="bicycleInfrastructureSpeedFactor" class="java.lang.Double">1.0</attribute>
      </attributes>
    </link>
    <link id="10018" from="75" to="21" length="360.117" capacity="3600.0" freespeed="13.889" permlanes="3" oneway="1" modes="car" origid="">
      <attributes>
        <attribute name="carpsafe" class="java.lang.Integer">3</attribute>
        <attribute name="ebikepsafe" class="java.lang.Integer">3</attribute>
        <attribute name="escootpsafe" class="java.lang.Integer">3</attribute>
        <attribute name="walkpsafe" class="java.lang.Integer">3</attribute>
        <attribute name="type" class="java.lang.String">primary</attribute>
        <attribute name="bicycleInfrastructureSpeedFactor" class="java.lang.Double">1.0</attribute>
      </attributes>
    </link>
    <link id="10019" from="76" to="12" length="591.431" capacity="1200.0" freespeed="13.889" permlanes="1" oneway="1" modes="bicycle,car" origid="">
      <attributes>
        <attribute name="carpsafe" class="java.lang.Integer">2</attribute>
        <attribute name="ebikepsafe" class="java.lang.Integer">3</attribute>
        <attribute name="escootpsafe" class="java.lang.Integer">2</attribute>
        <attribute name="walkpsafe" class="java.lang.Integer">2</attribute>
        <attribute name="type" class="java.lang.String">primary</attribute>
        <attribute name="bicycleInfrastructureSpeedFactor" class="java.lang.Double">1.0</attribute>
      </attributes>
    </link>
    <link id="10020" from="12" to="13" length="42.96" capacity="1200.0" freespeed="13.889" permlanes="1" oneway="1" modes="bicycle,car" origid="">
      <attributes>
        <attribute name="carpsafe" class="java.lang.Integer">2</attribute>
        <attribute name="ebikepsafe" class="java.lang.Integer">2</attribute>
        <attribute name="escootpsafe" class="java.lang.Integer">2</attribute>
        <attribute name="walkpsafe" class="java.lang.Integer">2</attribute>
        <attribute name="type" class="java.lang.String">primary</attribute>
        <attribute name="bicycleInfrastructureSpeedFactor" class="java.lang.Double">1.0</attribute>
      </attributes>
    </link>
    <link id="10021" from="5" to="31" length="134.678" capacity="3600.0" freespeed="13.889" permlanes="3" oneway="1" modes="car" origid="">
      <attributes>
        <attribute name="carpsafe" class="java.lang.Integer">3</attribute>
        <attribute name="ebikepsafe" class="java.lang.Integer">3</attribute>
        <attribute name="escootpsafe" class="java.lang.Integer">2</attribute>
        <attribute name="walkpsafe" class="java.lang.Integer">3</attribute>
        <attribute name="type" class="java.lang.String">primary</attribute>
        <attribute name="bicycleInfrastructureSpeedFactor" class="java.lang.Double">1.0</attribute>
      </attributes>
    </link>
    <link id="10022" from="91" to="32" length="945.698" capacity="4800.0" freespeed="13.889" permlanes="4" oneway="1" modes="car" origid="">
      <attributes>
        <attribute name="carpsafe" class="java.lang.Integer">3</attribute>
        <attribute name="ebikepsafe" class="java.lang.Integer">3</attribute>
        <attribute name="escootpsafe" class="java.lang.Integer">3</attribute>
        <attribute name="walkpsafe" class="java.lang.Integer">3</attribute>
        <attribute name="type" class="java.lang.String">primary</attribute>
        <attribute name="bicycleInfrastructureSpeedFactor" class="java.lang.Double">1.0</attribute>
      </attributes>
    </link>
    <link id="10023" from="1" to="1" length="393.7" capacity="1200.0" freespeed="13.889" permlanes="1" oneway="1" modes="bicycle" origid="">
      <attributes>
        <attribute name="carpsafe" class="java.lang.Integer">2</attribute>
        <attribute name="ebikepsafe" class="java.lang.Integer">6</attribute>
        <attribute name="escootpsafe" class="java.lang.Integer">5</attribute>
        <attribute name="walkpsafe" class="java.lang.Integer">2</attribute>
        <attribute name="type" class="java.lang.String">primary</attribute>
        <attribute name="bicycleInfrastructureSpeedFactor" class="java.lang.Double">1.0</attribute>
      </attributes>
    </link>
    <link id="10024" from="1" to="13" length="566.646" capacity="1200.0" freespeed="13.889" permlanes="1" oneway="1" modes="bicycle,car" origid="">
      <attributes>
        <attribute name="carpsafe" class="java.lang.Integer">3</attribute>
        <attribute name="ebikepsafe" class="java.lang.Integer">2</attribute>
        <attribute name="escootpsafe" class="java.lang.Integer">2</attribute>
        <attribute name="walkpsafe" class="java.lang.Integer">3</attribute>
        <attribute name="type" class="java.lang.String">primary</attribute>
        <attribute name="bicycleInfrastructureSpeedFactor" class="java.lang.Double">1.0</attribute>
      </attributes>
    </link>
    <link id="10025" from="13" to="14" length="153.08" capacity="1200.0" freespeed="13.889" permlanes="1" oneway="1" modes="bicycle,car" origid="">
      <attributes>
        <attribute name="carpsafe" class="java.lang.Integer">2</attribute>
        <attribute name="ebikepsafe" class="java.lang.Integer">2</attribute>
        <attribute name="escootpsafe" class="java.lang.Integer">2</attribute>
        <attribute name="walkpsafe" class="java.lang.Integer">2</attribute>
        <attribute name="type" class="java.lang.String">primary</attribute>
        <attribute name="bicycleInfrastructureSpeedFactor" class="java.lang.Double">1.0</attribute>
      </attributes>
    </link>
    <link id="10026" from="14" to="15" length="518.762" capacity="1200.0" freespeed="13.889" permlanes="1" oneway="1" modes="bicycle,car" origid="">
      <attributes>
        <attribute name="carpsafe" class="java.lang.Integer">2</attribute>
        <attribute name="ebikepsafe" class="java.lang.Integer">3</attribute>
        <attribute name="escootpsafe" class="java.lang.Integer">2</attribute>
        <attribute name="walkpsafe" class="java.lang.Integer">2</attribute>
        <attribute name="type" class="java.lang.String">primary</attribute>
        <attribute name="bicycleInfrastructureSpeedFactor" class="java.lang.Double">1.0</attribute>
      </attributes>
    </link>
    <link id="10027" from="17" to="18" length="163.135" capacity="1200.0" freespeed="13.889" permlanes="1" oneway="1" modes="bicycle" origid="">
      <attributes>
        <attribute name="carpsafe" class="java.lang.Integer">2</attribute>
        <attribute name="ebikepsafe" class="java.lang.Integer">4</attribute>
        <attribute name="escootpsafe" class="java.lang.Integer">4</attribute>
        <attribute name="walkpsafe" class="java.lang.Integer">2</attribute>
        <attribute name="type" class="java.lang.String">primary</attribute>
        <attribute name="bicycleInfrastructureSpeedFactor" class="java.lang.Double">1.0</attribute>
      </attributes>
    </link>
    <link id="10028" from="18" to="20" length="152.196" capacity="1200.0" freespeed="13.889" permlanes="1" oneway="1" modes="bicycle" origid="">
      <attributes>
        <attribute name="carpsafe" class="java.lang.Integer">2</attribute>
        <attribute name="ebikepsafe" class="java.lang.Integer">4</attribute>
        <attribute name="escootpsafe" class="java.lang.Integer">4</attribute>
        <attribute name="walkpsafe" class="java.lang.Integer">2</attribute>
        <attribute name="type" class="java.lang.String">primary</attribute>
        <attribute name="bicycleInfrastructureSpeedFactor" class="java.lang.Double">1.0</attribute>
      </attributes>
    </link>
    <link id="10029" from="20" to="22" length="333.637" capacity="3600.0" freespeed="13.889" permlanes="3" oneway="1" modes="car" origid="">
      <attributes>
        <attribute name="carpsafe" class="java.lang.Integer">3</attribute>
        <attribute name="ebikepsafe" class="java.lang.Integer">3</attribute>
        <attribute name="escootpsafe" class="java.lang.Integer">3</attribute>
        <attribute name="walkpsafe" class="java.lang.Integer">3</attribute>
        <attribute name="type" class="java.lang.String">primary</attribute>
        <attribute name="bicycleInfrastructureSpeedFactor" class="java.lang.Double">1.0</attribute>
      </attributes>
    </link>
    <link id="10030" from="15" to="16" length="118.934" capacity="1200.0" freespeed="13.889" permlanes="1" oneway="1" modes="bicycle,car" origid="">
      <attributes>
        <attribute name="carpsafe" class="java.lang.Integer">2</attribute>
        <attribute name="ebikepsafe" class="java.lang.Integer">2</attribute>
        <attribute name="escootpsafe" class="java.lang.Integer">2</attribute>
        <attribute name="walkpsafe" class="java.lang.Integer">2</attribute>
        <attribute name="type" class="java.lang.String">primary</attribute>
        <attribute name="bicycleInfrastructureSpeedFactor" class="java.lang.Double">1.0</attribute>
      </attributes>
    </link>
    <link id="10031" from="16" to="17" length="115.28" capacity="1200.0" freespeed="13.889" permlanes="1" oneway="1" modes="bicycle" origid="">
      <attributes>
        <attribute name="carpsafe" class="java.lang.Integer">2</attribute>
        <attribute name="ebikepsafe" class="java.lang.Integer">2</attribute>
        <attribute name="escootpsafe" class="java.lang.Integer">2</attribute>
        <attribute name="walkpsafe" class="java.lang.Integer">2</attribute>
        <attribute name="type" class="java.lang.String">primary</attribute>
        <attribute name="bicycleInfrastructureSpeedFactor" class="java.lang.Double">1.0</attribute>
      </attributes>
    </link>
    <link id="10032" from="21" to="19" length="146.735" capacity="1200.0" freespeed="13.889" permlanes="1" oneway="1" modes="car" origid="">
      <attributes>
        <attribute name="carpsafe" class="java.lang.Integer">3</attribute>
        <attribute name="ebikepsafe" class="java.lang.Integer">3</attribute>
        <attribute name="escootpsafe" class="java.lang.Integer">3</attribute>
        <attribute name="walkpsafe" class="java.lang.Integer">3</attribute>
        <attribute name="type" class="java.lang.String">primary</attribute>
        <attribute name="bicycleInfrastructureSpeedFactor" class="java.lang.Double">1.0</attribute>
      </attributes>
    </link>
    <link id="10033" from="19" to="20" length="85.717" capacity="1200.0" freespeed="13.889" permlanes="1" oneway="1" modes="car" origid="">
      <attributes>
        <attribute name="carpsafe" class="java.lang.Integer">3</attribute>
        <attribute name="ebikepsafe" class="java.lang.Integer">3</attribute>
        <attribute name="escootpsafe" class="java.lang.Integer">3</attribute>
        <attribute name="walkpsafe" class="java.lang.Integer">3</attribute>
        <attribute name="type" class="java.lang.String">primary</attribute>
        <attribute name="bicycleInfrastructureSpeedFactor" class="java.lang.Double">1.0</attribute>
      </attributes>
    </link>
    <link id="10034" from="19" to="16" length="236.927" capacity="3600.0" freespeed="13.889" permlanes="3" oneway="1" modes="car" origid="">
      <attributes>
        <attribute name="carpsafe" class="java.lang.Integer">3</attribute>
        <attribute name="ebikepsafe" class="java.lang.Integer">3</attribute>
        <attribute name="escootpsafe" class="java.lang.Integer">3</attribute>
        <attribute name="walkpsafe" class="java.lang.Integer">3</attribute>
        <attribute name="type" class="java.lang.String">primary</attribute>
        <attribute name="bicycleInfrastructureSpeedFactor" class="java.lang.Double">1.0</attribute>
      </attributes>
    </link>
    <link id="10035" from="22" to="23" length="602.592" capacity="2400.0" freespeed="13.889" permlanes="2" oneway="1" modes="bicycle,car" origid="">
      <attributes>
        <attribute name="carpsafe" class="java.lang.Integer">3</attribute>